/*--------------------------------*- C++ -*----------------------------------*\
| =========                 |                                                 |
| \\      /  F ield         | OpenFOAM: The Open Source CFD Toolbox           |
|  \\    /   O peration     | Version:  5                                     |
|   \\  /    A nd           | Web:      www.OpenFOAM.org                      |
|    \\/     M anipulation  |                                                 |
\*---------------------------------------------------------------------------*/
FoamFile
{
    version     2.0;
    format      ascii;
    class       dictionary;
    object      topoSetDict;
}

// * * * * * * * * * * * * * * * * * * * * * * * * * * * * * * * * * * * * * //

actions
(
    {
        name    boundaryFaces;
        type    faceSet;
        action  new;
        source  patchToFace;
        sourceInfo
        {
            name nozzle;
        }
    }
    
    {
        name    boundaryFaces;
        type    faceSet;
        action  add;
        source  patchToFace;
        sourceInfo
        {
            name walls_pre;
        }
    }
);

// ************************************************************************* //
