/*--------------------------------*- C++ -*----------------------------------*\
| =========                 |                                                 |
| \\      /  F ield         | OpenFOAM: The Open Source CFD Toolbox           |
|  \\    /   O peration     | Version:  5                                     |
|   \\  /    A nd           | Web:      www.OpenFOAM.org                      |
|    \\/     M anipulation  |                                                 |
\*---------------------------------------------------------------------------*/
FoamFile
{
    version     2.0;
    format      ascii;
    class       volScalarField;
    location    "0";
    object      epsilon;
}
// * * * * * * * * * * * * * * * * * * * * * * * * * * * * * * * * * * * * * //

dimensions      [0 2 -3 0 0 0 0];

internalField   uniform 0.01;

boundaryField
{
    dymWall
    {
        type            epsilonWallFunction;
        value           $internalField;
    }
    
    inlet
    {
        type            turbulentMixingLengthDissipationRateInlet;
        mixingLength    0.01;       // 1cm - half channel height
        value           $internalField;
    }
    
    outlet
    {
        type            inletOutlet;
        inletValue      $internalField;
    }
    
    
    walls
    {
        type            epsilonWallFunction;
        value           $internalField;
    }

    AMI1
    {
        type            cyclicAMI;
        value           $internalField;
    }

    AMI2
    {
        type            cyclicAMI;
        value           $internalField;
    }
    
    front
    {
        type            empty;
    }

    back
    {
        type            empty;
    }
        

}


// ************************************************************************* //
