/*--------------------------------*- C++ -*----------------------------------*\
| =========                 |                                                 |
| \\      /  F ield         | OpenFOAM: The Open Source CFD Toolbox           |
|  \\    /   O peration     | Version:  5                                     |
|   \\  /    A nd           | Web:      www.OpenFOAM.org                      |
|    \\/     M anipulation  |                                                 |
\*---------------------------------------------------------------------------*/
FoamFile
{
    version     2.0;
    format      ascii;
    class       volVectorField;
    object      U;
}
// * * * * * * * * * * * * * * * * * * * * * * * * * * * * * * * * * * * * * //

dimensions      [0 1 -1 0 0 0 0];

internalField   uniform (0 0 0);

boundaryField
{
    dymWall
    {
        type            movingWallVelocity;
        value           uniform (0 0 0);
    }
    
    inlet
    {
        //type            pressureInletOutletVelocity;
        //value           uniform (0 0 0);
        
        type            fixedValue;
        value           uniform (0 1 0);
    }
    
    outlet1
    {
        type            inletOutlet;
        inletValue      uniform (0 0 0);
        value           uniform (0 0 0);
    }
    outlet2
    {
        type            inletOutlet;
        inletValue      uniform (0 0 0);
        value           uniform (0 0 0);
    }
    
    walls
    {
        type            fixedValue;
        value           uniform (0 0 0);
        
        //type            noSlip;
    }
    

    AMI1
    {
        type            cyclicAMI;
        value           $internalField;
    }

    AMI2
    {
        type            cyclicAMI;
        value           $internalField;
    }
    
    
    front
    {
        type            empty;
    }

    back
    {
        type            empty;
    }
        
}

// ************************************************************************* //
