/*--------------------------------*- C++ -*----------------------------------*\
| =========                 |                                                 |
| \\      /  F ield         | OpenFOAM: The Open Source CFD Toolbox           |
|  \\    /   O peration     | Version:  5.x                                   |
|   \\  /    A nd           | Web:      www.OpenFOAM.org                      |
|    \\/     M anipulation  |                                                 |
\*---------------------------------------------------------------------------*/
/*   Windows 32 and 64 bit porting by blueCAPE: http://www.bluecape.com.pt   *\
|  Based on Windows porting (2.0.x v4) by Symscape: http://www.symscape.com   |
\*---------------------------------------------------------------------------*/
FoamFile
{
    version     2.0;
    format      ascii;
    class       extendedFeatureEdgeMesh;
    location    "constant/extendedFeatureEdgeMesh";
    object      dymWall.extendedFeatureEdgeMesh;
}
// * * * * * * * * * * * * * * * * * * * * * * * * * * * * * * * * * * * * * //

// points

1448
(
(60.25 3 -100)
(60.25 3 100)
(60.2631 2.99994 100)
(61.5982 2.15756 -100)
(61.6039 2.14577 100)
(61.6039 2.14577 -100)
(61.6095 2.13393 100)
(61.6095 2.13393 -100)
(61.6149 2.12204 100)
(61.6149 2.12204 -100)
(61.6203 2.11011 100)
(61.6203 2.11011 -100)
(61.6256 2.09812 100)
(61.6256 2.09812 -100)
(61.6308 2.0861 100)
(61.6308 2.0861 -100)
(61.6358 2.07402 100)
(61.6358 2.07402 -100)
(61.6408 2.06191 100)
(61.6408 2.06191 -100)
(61.6456 2.04975 100)
(61.6456 2.04975 -100)
(61.6504 2.03755 100)
(61.6504 2.03755 -100)
(61.655 2.02531 100)
(61.655 2.02531 -100)
(61.6595 2.01303 100)
(61.6595 2.01303 -100)
(61.664 2.00071 100)
(61.664 2.00071 -100)
(61.6683 1.98835 100)
(61.6683 1.98835 -100)
(61.6725 1.97596 100)
(61.6725 1.97596 -100)
(61.6766 1.96353 100)
(61.6766 1.96353 -100)
(61.6806 1.95106 100)
(61.6806 1.95106 -100)
(61.6845 1.93856 100)
(61.6845 1.93856 -100)
(61.6882 1.92602 100)
(61.6882 1.92602 -100)
(61.6919 1.91346 100)
(61.6919 1.91346 -100)
(61.6954 1.90086 100)
(61.6954 1.90086 -100)
(61.6989 1.88823 100)
(61.6989 1.88823 -100)
(61.7022 1.87557 100)
(61.7022 1.87557 -100)
(61.7054 1.86288 100)
(61.7054 1.86288 -100)
(61.7085 1.85017 100)
(61.7085 1.85017 -100)
(61.7116 1.83743 100)
(61.7116 1.83743 -100)
(61.7144 1.82466 100)
(61.7144 1.82466 -100)
(61.7172 1.81187 100)
(61.7172 1.81187 -100)
(61.7199 1.79905 100)
(61.7199 1.79905 -100)
(61.7224 1.78621 100)
(61.7224 1.78621 -100)
(61.7249 1.77335 100)
(61.7249 1.77335 -100)
(61.7272 1.76047 100)
(61.7272 1.76047 -100)
(61.7294 1.74757 100)
(61.7294 1.74757 -100)
(61.7315 1.73465 100)
(61.7315 1.73465 -100)
(61.7335 1.72171 100)
(61.7335 1.72171 -100)
(61.7354 1.70876 100)
(61.7354 1.70876 -100)
(61.7372 1.69579 100)
(61.7372 1.69579 -100)
(61.7388 1.6828 100)
(61.7388 1.6828 -100)
(61.7404 1.66981 100)
(61.7404 1.66981 -100)
(61.7418 1.65679 100)
(61.7418 1.65679 -100)
(61.7431 1.64377 100)
(61.7431 1.64377 -100)
(61.7443 1.63073 100)
(61.7443 1.63073 -100)
(61.7454 1.61769 100)
(61.7454 1.61769 -100)
(61.7463 1.60464 100)
(61.7463 1.60464 -100)
(61.7472 1.59157 100)
(61.7472 1.59157 -100)
(61.748 1.5785 100)
(61.748 1.5785 -100)
(61.7486 1.56543 100)
(61.7486 1.56543 -100)
(61.7491 1.55235 100)
(61.7491 1.55235 -100)
(61.7495 1.53927 100)
(61.7495 1.53927 -100)
(61.7498 1.52618 100)
(61.7498 1.52618 -100)
(61.7499 1.51309 100)
(61.7499 1.51309 -100)
(61.75 1.5 100)
(61.75 1.5 -100)
(60.2631 2.99994 -100)
(60.2762 2.99977 100)
(60.2762 2.99977 -100)
(60.2893 2.99949 100)
(60.2893 2.99949 -100)
(60.3023 2.99909 100)
(60.3023 2.99909 -100)
(60.3154 2.99857 100)
(60.3154 2.99857 -100)
(60.3285 2.99794 100)
(60.3285 2.99794 -100)
(60.3416 2.9972 100)
(60.3416 2.9972 -100)
(60.3546 2.99635 100)
(60.3546 2.99635 -100)
(60.3677 2.99538 100)
(60.3677 2.99538 -100)
(60.3807 2.99429 100)
(60.3807 2.99429 -100)
(60.3938 2.99309 100)
(60.3938 2.99309 -100)
(60.4068 2.99178 100)
(60.4068 2.99178 -100)
(60.4198 2.99036 100)
(60.4198 2.99036 -100)
(60.4328 2.98882 100)
(60.4328 2.98882 -100)
(60.4458 2.98717 100)
(60.4458 2.98717 -100)
(60.4588 2.9854 100)
(60.4588 2.9854 -100)
(60.4717 2.98352 100)
(60.4717 2.98352 -100)
(60.4846 2.98153 100)
(60.4846 2.98153 -100)
(60.4976 2.97943 100)
(60.4976 2.97943 -100)
(60.5105 2.97721 100)
(60.5105 2.97721 -100)
(60.5233 2.97488 100)
(60.5233 2.97488 -100)
(60.5362 2.97244 100)
(60.5362 2.97244 -100)
(60.549 2.96989 100)
(60.549 2.96989 -100)
(60.5619 2.96722 100)
(60.5619 2.96722 -100)
(60.5747 2.96444 100)
(60.5747 2.96444 -100)
(60.5874 2.96156 100)
(60.5874 2.96156 -100)
(60.6002 2.95855 100)
(60.6002 2.95855 -100)
(60.6129 2.95544 100)
(60.6129 2.95544 -100)
(60.6256 2.95222 100)
(60.6256 2.95222 -100)
(60.6382 2.94889 100)
(60.6382 2.94889 -100)
(60.6509 2.94545 100)
(60.6509 2.94545 -100)
(60.6635 2.94189 100)
(60.6635 2.94189 -100)
(60.676 2.93823 100)
(60.676 2.93823 -100)
(60.6886 2.93446 100)
(60.6886 2.93446 -100)
(60.7011 2.93058 100)
(60.7011 2.93058 -100)
(60.7135 2.92658 100)
(60.7135 2.92658 -100)
(60.726 2.92249 100)
(60.726 2.92249 -100)
(60.7383 2.91828 100)
(60.7383 2.91828 -100)
(60.7507 2.91396 100)
(60.7507 2.91396 -100)
(60.763 2.90954 100)
(60.763 2.90954 -100)
(60.7753 2.90501 100)
(60.7753 2.90501 -100)
(60.7876 2.90037 100)
(60.7876 2.90037 -100)
(60.7998 2.89563 100)
(60.7998 2.89563 -100)
(60.8119 2.89078 100)
(60.8119 2.89078 -100)
(60.824 2.88582 100)
(60.824 2.88582 -100)
(60.8361 2.88076 100)
(60.8361 2.88076 -100)
(60.8481 2.87559 100)
(60.8481 2.87559 -100)
(60.8601 2.87032 100)
(60.8601 2.87032 -100)
(60.872 2.86494 100)
(60.872 2.86494 -100)
(60.8839 2.85946 100)
(60.8839 2.85946 -100)
(60.8958 2.85388 100)
(60.8958 2.85388 -100)
(60.9076 2.84819 100)
(60.9076 2.84819 -100)
(60.9193 2.8424 100)
(60.9193 2.8424 -100)
(60.931 2.83651 100)
(60.931 2.83651 -100)
(60.9426 2.83052 100)
(60.9426 2.83052 -100)
(60.9542 2.82442 100)
(60.9542 2.82442 -100)
(60.9657 2.81823 100)
(60.9657 2.81823 -100)
(60.9772 2.81193 100)
(60.9772 2.81193 -100)
(60.9886 2.80553 100)
(60.9886 2.80553 -100)
(61 2.79904 100)
(61 2.79904 -100)
(61.0113 2.79244 100)
(61.0113 2.79244 -100)
(61.0226 2.78575 100)
(61.0226 2.78575 -100)
(61.0337 2.77896 100)
(61.0337 2.77896 -100)
(61.0449 2.77207 100)
(61.0449 2.77207 -100)
(61.056 2.76509 100)
(61.056 2.76509 -100)
(61.067 2.75801 100)
(61.067 2.75801 -100)
(61.0779 2.75083 100)
(61.0779 2.75083 -100)
(61.0888 2.74356 100)
(61.0888 2.74356 -100)
(61.0996 2.73619 100)
(61.0996 2.73619 -100)
(61.1104 2.72873 100)
(61.1104 2.72873 -100)
(61.1211 2.72117 100)
(61.1211 2.72117 -100)
(61.1317 2.71353 100)
(61.1317 2.71353 -100)
(61.1422 2.70579 100)
(61.1422 2.70579 -100)
(61.1527 2.69795 100)
(61.1527 2.69795 -100)
(61.1631 2.69003 100)
(61.1631 2.69003 -100)
(61.1735 2.68202 100)
(61.1735 2.68202 -100)
(61.1838 2.67391 100)
(61.1838 2.67391 -100)
(61.194 2.66572 100)
(61.194 2.66572 -100)
(61.2041 2.65744 100)
(61.2041 2.65744 -100)
(61.2142 2.64907 100)
(61.2142 2.64907 -100)
(61.2242 2.64061 100)
(61.2242 2.64061 -100)
(61.2341 2.63206 100)
(61.2341 2.63206 -100)
(61.2439 2.62343 100)
(61.2439 2.62343 -100)
(61.2537 2.61472 100)
(61.2537 2.61472 -100)
(61.2634 2.60592 100)
(61.2634 2.60592 -100)
(61.273 2.59703 100)
(61.273 2.59703 -100)
(61.2825 2.58806 100)
(61.2825 2.58806 -100)
(61.292 2.57901 100)
(61.292 2.57901 -100)
(61.3014 2.56988 100)
(61.3014 2.56988 -100)
(61.3107 2.56066 100)
(61.3107 2.56066 -100)
(61.3199 2.55136 100)
(61.3199 2.55136 -100)
(61.329 2.54199 100)
(61.329 2.54199 -100)
(61.3381 2.53253 100)
(61.3381 2.53253 -100)
(61.347 2.523 100)
(61.347 2.523 -100)
(61.3559 2.51339 100)
(61.3559 2.51339 -100)
(61.3647 2.5037 100)
(61.3647 2.5037 -100)
(61.3734 2.49393 100)
(61.3734 2.49393 -100)
(61.3821 2.48409 100)
(61.3821 2.48409 -100)
(61.3906 2.47417 100)
(61.3906 2.47417 -100)
(61.3991 2.46418 100)
(61.3991 2.46418 -100)
(61.4074 2.45412 100)
(61.4074 2.45412 -100)
(61.4157 2.44398 100)
(61.4157 2.44398 -100)
(61.4239 2.43377 100)
(61.4239 2.43377 -100)
(61.432 2.42349 100)
(61.432 2.42349 -100)
(61.44 2.41314 100)
(61.44 2.41314 -100)
(61.4479 2.40272 100)
(61.4479 2.40272 -100)
(61.4558 2.39223 100)
(61.4558 2.39223 -100)
(61.4635 2.38168 100)
(61.4635 2.38168 -100)
(61.4712 2.37105 100)
(61.4712 2.37105 -100)
(61.4787 2.36036 100)
(61.4787 2.36036 -100)
(61.4862 2.34961 100)
(61.4862 2.34961 -100)
(61.4936 2.33879 100)
(61.4936 2.33879 -100)
(61.5008 2.3279 100)
(61.5008 2.3279 -100)
(61.508 2.31696 100)
(61.508 2.31696 -100)
(61.5151 2.30595 100)
(61.5151 2.30595 -100)
(61.5221 2.29488 100)
(61.5221 2.29488 -100)
(61.529 2.28375 100)
(61.529 2.28375 -100)
(61.5358 2.27256 100)
(61.5358 2.27256 -100)
(61.5424 2.26131 100)
(61.5424 2.26131 -100)
(61.549 2.25 100)
(61.549 2.25 -100)
(61.5555 2.23864 100)
(61.5555 2.23864 -100)
(61.5619 2.22721 100)
(61.5619 2.22721 -100)
(61.5682 2.21574 100)
(61.5682 2.21574 -100)
(61.5744 2.20421 100)
(61.5744 2.20421 -100)
(61.5805 2.19262 100)
(61.5805 2.19262 -100)
(61.5865 2.18099 100)
(61.5865 2.18099 -100)
(61.5924 2.1693 100)
(61.5924 2.1693 -100)
(61.5982 2.15756 100)
(61.75 -1.5 100)
(61.75 -1.5 -100)
(61.7499 -1.51309 100)
(60.9076 -2.84819 -100)
(60.8958 -2.85388 100)
(60.8958 -2.85388 -100)
(60.8839 -2.85946 100)
(60.8839 -2.85946 -100)
(60.872 -2.86494 100)
(60.872 -2.86494 -100)
(60.8601 -2.87032 100)
(60.8601 -2.87032 -100)
(60.8481 -2.87559 100)
(60.8481 -2.87559 -100)
(60.8361 -2.88076 100)
(60.8361 -2.88076 -100)
(60.824 -2.88582 100)
(60.824 -2.88582 -100)
(60.8119 -2.89078 100)
(60.8119 -2.89078 -100)
(60.7998 -2.89563 100)
(60.7998 -2.89563 -100)
(60.7876 -2.90037 100)
(60.7876 -2.90037 -100)
(60.7753 -2.90501 100)
(60.7753 -2.90501 -100)
(60.763 -2.90954 100)
(60.763 -2.90954 -100)
(60.7507 -2.91396 100)
(60.7507 -2.91396 -100)
(60.7383 -2.91828 100)
(60.7383 -2.91828 -100)
(60.726 -2.92249 100)
(60.726 -2.92249 -100)
(60.7135 -2.92658 100)
(60.7135 -2.92658 -100)
(60.7011 -2.93058 100)
(60.7011 -2.93058 -100)
(60.6886 -2.93446 100)
(60.6886 -2.93446 -100)
(60.676 -2.93823 100)
(60.676 -2.93823 -100)
(60.6635 -2.94189 100)
(60.6635 -2.94189 -100)
(60.6509 -2.94545 100)
(60.6509 -2.94545 -100)
(60.6382 -2.94889 100)
(60.6382 -2.94889 -100)
(60.6256 -2.95222 100)
(60.6256 -2.95222 -100)
(60.6129 -2.95544 100)
(60.6129 -2.95544 -100)
(60.6002 -2.95855 100)
(60.6002 -2.95855 -100)
(60.5874 -2.96156 100)
(60.5874 -2.96156 -100)
(60.5747 -2.96444 100)
(60.5747 -2.96444 -100)
(60.5619 -2.96722 100)
(60.5619 -2.96722 -100)
(60.549 -2.96989 100)
(60.549 -2.96989 -100)
(60.5362 -2.97244 100)
(60.5362 -2.97244 -100)
(60.5233 -2.97488 100)
(60.5233 -2.97488 -100)
(60.5105 -2.97721 100)
(60.5105 -2.97721 -100)
(60.4976 -2.97943 100)
(60.4976 -2.97943 -100)
(60.4846 -2.98153 100)
(60.4846 -2.98153 -100)
(60.4717 -2.98352 100)
(60.4717 -2.98352 -100)
(60.4588 -2.9854 100)
(60.4588 -2.9854 -100)
(60.4458 -2.98717 100)
(60.4458 -2.98717 -100)
(60.4328 -2.98882 100)
(60.4328 -2.98882 -100)
(60.4198 -2.99036 100)
(60.4198 -2.99036 -100)
(60.4068 -2.99178 100)
(60.4068 -2.99178 -100)
(60.3938 -2.99309 100)
(60.3938 -2.99309 -100)
(60.3807 -2.99429 100)
(60.3807 -2.99429 -100)
(60.3677 -2.99538 100)
(60.3677 -2.99538 -100)
(60.3546 -2.99635 100)
(60.3546 -2.99635 -100)
(60.3416 -2.9972 100)
(60.3416 -2.9972 -100)
(60.3285 -2.99794 100)
(60.3285 -2.99794 -100)
(60.3154 -2.99857 100)
(60.3154 -2.99857 -100)
(60.3023 -2.99909 100)
(60.3023 -2.99909 -100)
(60.2893 -2.99949 100)
(60.2893 -2.99949 -100)
(60.2762 -2.99977 100)
(60.2762 -2.99977 -100)
(60.2631 -2.99994 100)
(60.2631 -2.99994 -100)
(60.25 -3 100)
(60.25 -3 -100)
(61.7499 -1.51309 -100)
(61.7498 -1.52618 100)
(61.7498 -1.52618 -100)
(61.7495 -1.53927 100)
(61.7495 -1.53927 -100)
(61.7491 -1.55235 100)
(61.7491 -1.55235 -100)
(61.7486 -1.56543 100)
(61.7486 -1.56543 -100)
(61.748 -1.5785 100)
(61.748 -1.5785 -100)
(61.7472 -1.59157 100)
(61.7472 -1.59157 -100)
(61.7463 -1.60464 100)
(61.7463 -1.60464 -100)
(61.7454 -1.61769 100)
(61.7454 -1.61769 -100)
(61.7443 -1.63073 100)
(61.7443 -1.63073 -100)
(61.7431 -1.64377 100)
(61.7431 -1.64377 -100)
(61.7418 -1.65679 100)
(61.7418 -1.65679 -100)
(61.7404 -1.66981 100)
(61.7404 -1.66981 -100)
(61.7388 -1.6828 100)
(61.7388 -1.6828 -100)
(61.7372 -1.69579 100)
(61.7372 -1.69579 -100)
(61.7354 -1.70876 100)
(61.7354 -1.70876 -100)
(61.7335 -1.72171 100)
(61.7335 -1.72171 -100)
(61.7315 -1.73465 100)
(61.7315 -1.73465 -100)
(61.7294 -1.74757 100)
(61.7294 -1.74757 -100)
(61.7272 -1.76047 100)
(61.7272 -1.76047 -100)
(61.7249 -1.77335 100)
(61.7249 -1.77335 -100)
(61.7224 -1.78621 100)
(61.7224 -1.78621 -100)
(61.7199 -1.79905 100)
(61.7199 -1.79905 -100)
(61.7172 -1.81187 100)
(61.7172 -1.81187 -100)
(61.7144 -1.82466 100)
(61.7144 -1.82466 -100)
(61.7116 -1.83743 100)
(61.7116 -1.83743 -100)
(61.7085 -1.85017 100)
(61.7085 -1.85017 -100)
(61.7054 -1.86288 100)
(61.7054 -1.86288 -100)
(61.7022 -1.87557 100)
(61.7022 -1.87557 -100)
(61.6989 -1.88823 100)
(61.6989 -1.88823 -100)
(61.6954 -1.90086 100)
(61.6954 -1.90086 -100)
(61.6919 -1.91346 100)
(61.6919 -1.91346 -100)
(61.6882 -1.92602 100)
(61.6882 -1.92602 -100)
(61.6845 -1.93856 100)
(61.6845 -1.93856 -100)
(61.6806 -1.95106 100)
(61.6806 -1.95106 -100)
(61.6766 -1.96353 100)
(61.6766 -1.96353 -100)
(61.6725 -1.97596 100)
(61.6725 -1.97596 -100)
(61.6683 -1.98835 100)
(61.6683 -1.98835 -100)
(61.664 -2.00071 100)
(61.664 -2.00071 -100)
(61.6595 -2.01303 100)
(61.6595 -2.01303 -100)
(61.655 -2.02531 100)
(61.655 -2.02531 -100)
(61.6504 -2.03755 100)
(61.6504 -2.03755 -100)
(61.6456 -2.04975 100)
(61.6456 -2.04975 -100)
(61.6408 -2.06191 100)
(61.6408 -2.06191 -100)
(61.6358 -2.07402 100)
(61.6358 -2.07402 -100)
(61.6308 -2.0861 100)
(61.6308 -2.0861 -100)
(61.6256 -2.09812 100)
(61.6256 -2.09812 -100)
(61.6203 -2.11011 100)
(61.6203 -2.11011 -100)
(61.6149 -2.12204 100)
(61.6149 -2.12204 -100)
(61.6095 -2.13393 100)
(61.6095 -2.13393 -100)
(61.6039 -2.14577 100)
(61.6039 -2.14577 -100)
(61.5982 -2.15756 100)
(61.5982 -2.15756 -100)
(61.5924 -2.1693 100)
(61.5924 -2.1693 -100)
(61.5865 -2.18099 100)
(61.5865 -2.18099 -100)
(61.5805 -2.19262 100)
(61.5805 -2.19262 -100)
(61.5744 -2.20421 100)
(61.5744 -2.20421 -100)
(61.5682 -2.21574 100)
(61.5682 -2.21574 -100)
(61.5619 -2.22721 100)
(61.5619 -2.22721 -100)
(61.5555 -2.23864 100)
(61.5555 -2.23864 -100)
(61.549 -2.25 100)
(61.549 -2.25 -100)
(61.5424 -2.26131 100)
(61.5424 -2.26131 -100)
(61.5358 -2.27256 100)
(61.5358 -2.27256 -100)
(61.529 -2.28375 100)
(61.529 -2.28375 -100)
(61.5221 -2.29488 100)
(61.5221 -2.29488 -100)
(61.5151 -2.30595 100)
(61.5151 -2.30595 -100)
(61.508 -2.31696 100)
(61.508 -2.31696 -100)
(61.5008 -2.3279 100)
(61.5008 -2.3279 -100)
(61.4936 -2.33879 100)
(61.4936 -2.33879 -100)
(61.4862 -2.34961 100)
(61.4862 -2.34961 -100)
(61.4787 -2.36036 100)
(61.4787 -2.36036 -100)
(61.4712 -2.37105 100)
(61.4712 -2.37105 -100)
(61.4635 -2.38168 100)
(61.4635 -2.38168 -100)
(61.4558 -2.39223 100)
(61.4558 -2.39223 -100)
(61.4479 -2.40272 100)
(61.4479 -2.40272 -100)
(61.44 -2.41314 100)
(61.44 -2.41314 -100)
(61.432 -2.42349 100)
(61.432 -2.42349 -100)
(61.4239 -2.43377 100)
(61.4239 -2.43377 -100)
(61.4157 -2.44398 100)
(61.4157 -2.44398 -100)
(61.4074 -2.45412 100)
(61.4074 -2.45412 -100)
(61.3991 -2.46418 100)
(61.3991 -2.46418 -100)
(61.3906 -2.47417 100)
(61.3906 -2.47417 -100)
(61.3821 -2.48409 100)
(61.3821 -2.48409 -100)
(61.3734 -2.49393 100)
(61.3734 -2.49393 -100)
(61.3647 -2.5037 100)
(61.3647 -2.5037 -100)
(61.3559 -2.51339 100)
(61.3559 -2.51339 -100)
(61.347 -2.523 100)
(61.347 -2.523 -100)
(61.3381 -2.53253 100)
(61.3381 -2.53253 -100)
(61.329 -2.54199 100)
(61.329 -2.54199 -100)
(61.3199 -2.55136 100)
(61.3199 -2.55136 -100)
(61.3107 -2.56066 100)
(61.3107 -2.56066 -100)
(61.3014 -2.56988 100)
(61.3014 -2.56988 -100)
(61.292 -2.57901 100)
(61.292 -2.57901 -100)
(61.2825 -2.58806 100)
(61.2825 -2.58806 -100)
(61.273 -2.59703 100)
(61.273 -2.59703 -100)
(61.2634 -2.60592 100)
(61.2634 -2.60592 -100)
(61.2537 -2.61472 100)
(61.2537 -2.61472 -100)
(61.2439 -2.62343 100)
(61.2439 -2.62343 -100)
(61.2341 -2.63206 100)
(61.2341 -2.63206 -100)
(61.2242 -2.64061 100)
(61.2242 -2.64061 -100)
(61.2142 -2.64907 100)
(61.2142 -2.64907 -100)
(61.2041 -2.65744 100)
(61.2041 -2.65744 -100)
(61.194 -2.66572 100)
(61.194 -2.66572 -100)
(61.1838 -2.67391 100)
(61.1838 -2.67391 -100)
(61.1735 -2.68202 100)
(61.1735 -2.68202 -100)
(61.1631 -2.69003 100)
(61.1631 -2.69003 -100)
(61.1527 -2.69795 100)
(61.1527 -2.69795 -100)
(61.1422 -2.70579 100)
(61.1422 -2.70579 -100)
(61.1317 -2.71353 100)
(61.1317 -2.71353 -100)
(61.1211 -2.72117 100)
(61.1211 -2.72117 -100)
(61.1104 -2.72873 100)
(61.1104 -2.72873 -100)
(61.0996 -2.73619 100)
(61.0996 -2.73619 -100)
(61.0888 -2.74356 100)
(61.0888 -2.74356 -100)
(61.0779 -2.75083 100)
(61.0779 -2.75083 -100)
(61.067 -2.75801 100)
(61.067 -2.75801 -100)
(61.056 -2.76509 100)
(61.056 -2.76509 -100)
(61.0449 -2.77207 100)
(61.0449 -2.77207 -100)
(61.0337 -2.77896 100)
(61.0337 -2.77896 -100)
(61.0226 -2.78575 100)
(61.0226 -2.78575 -100)
(61.0113 -2.79244 100)
(61.0113 -2.79244 -100)
(61 -2.79904 100)
(61 -2.79904 -100)
(60.9886 -2.80553 100)
(60.9886 -2.80553 -100)
(60.9772 -2.81193 100)
(60.9772 -2.81193 -100)
(60.9657 -2.81823 100)
(60.9657 -2.81823 -100)
(60.9542 -2.82442 100)
(60.9542 -2.82442 -100)
(60.9426 -2.83052 100)
(60.9426 -2.83052 -100)
(60.931 -2.83651 100)
(60.931 -2.83651 -100)
(60.9193 -2.8424 100)
(60.9193 -2.8424 -100)
(60.9076 -2.84819 100)
(-60.25 -3 100)
(-60.25 -3 -100)
(-60.2631 -2.99994 100)
(-61.5982 -2.15756 -100)
(-61.6039 -2.14577 100)
(-61.6039 -2.14577 -100)
(-61.6095 -2.13393 100)
(-61.6095 -2.13393 -100)
(-61.6149 -2.12204 100)
(-61.6149 -2.12204 -100)
(-61.6203 -2.11011 100)
(-61.6203 -2.11011 -100)
(-61.6256 -2.09812 100)
(-61.6256 -2.09812 -100)
(-61.6308 -2.0861 100)
(-61.6308 -2.0861 -100)
(-61.6358 -2.07402 100)
(-61.6358 -2.07402 -100)
(-61.6408 -2.06191 100)
(-61.6408 -2.06191 -100)
(-61.6456 -2.04975 100)
(-61.6456 -2.04975 -100)
(-61.6504 -2.03755 100)
(-61.6504 -2.03755 -100)
(-61.655 -2.02531 100)
(-61.655 -2.02531 -100)
(-61.6595 -2.01303 100)
(-61.6595 -2.01303 -100)
(-61.664 -2.00071 100)
(-61.664 -2.00071 -100)
(-61.6683 -1.98835 100)
(-61.6683 -1.98835 -100)
(-61.6725 -1.97596 100)
(-61.6725 -1.97596 -100)
(-61.6766 -1.96353 100)
(-61.6766 -1.96353 -100)
(-61.6806 -1.95106 100)
(-61.6806 -1.95106 -100)
(-61.6845 -1.93856 100)
(-61.6845 -1.93856 -100)
(-61.6882 -1.92602 100)
(-61.6882 -1.92602 -100)
(-61.6919 -1.91346 100)
(-61.6919 -1.91346 -100)
(-61.6954 -1.90086 100)
(-61.6954 -1.90086 -100)
(-61.6989 -1.88823 100)
(-61.6989 -1.88823 -100)
(-61.7022 -1.87557 100)
(-61.7022 -1.87557 -100)
(-61.7054 -1.86288 100)
(-61.7054 -1.86288 -100)
(-61.7085 -1.85017 100)
(-61.7085 -1.85017 -100)
(-61.7116 -1.83743 100)
(-61.7116 -1.83743 -100)
(-61.7144 -1.82466 100)
(-61.7144 -1.82466 -100)
(-61.7172 -1.81187 100)
(-61.7172 -1.81187 -100)
(-61.7199 -1.79905 100)
(-61.7199 -1.79905 -100)
(-61.7224 -1.78621 100)
(-61.7224 -1.78621 -100)
(-61.7249 -1.77335 100)
(-61.7249 -1.77335 -100)
(-61.7272 -1.76047 100)
(-61.7272 -1.76047 -100)
(-61.7294 -1.74757 100)
(-61.7294 -1.74757 -100)
(-61.7315 -1.73465 100)
(-61.7315 -1.73465 -100)
(-61.7335 -1.72171 100)
(-61.7335 -1.72171 -100)
(-61.7354 -1.70876 100)
(-61.7354 -1.70876 -100)
(-61.7372 -1.69579 100)
(-61.7372 -1.69579 -100)
(-61.7388 -1.6828 100)
(-61.7388 -1.6828 -100)
(-61.7404 -1.66981 100)
(-61.7404 -1.66981 -100)
(-61.7418 -1.65679 100)
(-61.7418 -1.65679 -100)
(-61.7431 -1.64377 100)
(-61.7431 -1.64377 -100)
(-61.7443 -1.63073 100)
(-61.7443 -1.63073 -100)
(-61.7454 -1.61769 100)
(-61.7454 -1.61769 -100)
(-61.7463 -1.60464 100)
(-61.7463 -1.60464 -100)
(-61.7472 -1.59157 100)
(-61.7472 -1.59157 -100)
(-61.748 -1.5785 100)
(-61.748 -1.5785 -100)
(-61.7486 -1.56543 100)
(-61.7486 -1.56543 -100)
(-61.7491 -1.55235 100)
(-61.7491 -1.55235 -100)
(-61.7495 -1.53927 100)
(-61.7495 -1.53927 -100)
(-61.7498 -1.52618 100)
(-61.7498 -1.52618 -100)
(-61.7499 -1.51309 100)
(-61.7499 -1.51309 -100)
(-61.75 -1.5 100)
(-61.75 -1.5 -100)
(-60.2631 -2.99994 -100)
(-60.2762 -2.99977 100)
(-60.2762 -2.99977 -100)
(-60.2893 -2.99949 100)
(-60.2893 -2.99949 -100)
(-60.3023 -2.99909 100)
(-60.3023 -2.99909 -100)
(-60.3154 -2.99857 100)
(-60.3154 -2.99857 -100)
(-60.3285 -2.99794 100)
(-60.3285 -2.99794 -100)
(-60.3416 -2.9972 100)
(-60.3416 -2.9972 -100)
(-60.3546 -2.99635 100)
(-60.3546 -2.99635 -100)
(-60.3677 -2.99538 100)
(-60.3677 -2.99538 -100)
(-60.3807 -2.99429 100)
(-60.3807 -2.99429 -100)
(-60.3938 -2.99309 100)
(-60.3938 -2.99309 -100)
(-60.4068 -2.99178 100)
(-60.4068 -2.99178 -100)
(-60.4198 -2.99036 100)
(-60.4198 -2.99036 -100)
(-60.4328 -2.98882 100)
(-60.4328 -2.98882 -100)
(-60.4458 -2.98717 100)
(-60.4458 -2.98717 -100)
(-60.4588 -2.9854 100)
(-60.4588 -2.9854 -100)
(-60.4717 -2.98352 100)
(-60.4717 -2.98352 -100)
(-60.4846 -2.98153 100)
(-60.4846 -2.98153 -100)
(-60.4976 -2.97943 100)
(-60.4976 -2.97943 -100)
(-60.5105 -2.97721 100)
(-60.5105 -2.97721 -100)
(-60.5233 -2.97488 100)
(-60.5233 -2.97488 -100)
(-60.5362 -2.97244 100)
(-60.5362 -2.97244 -100)
(-60.549 -2.96989 100)
(-60.549 -2.96989 -100)
(-60.5619 -2.96722 100)
(-60.5619 -2.96722 -100)
(-60.5747 -2.96444 100)
(-60.5747 -2.96444 -100)
(-60.5874 -2.96156 100)
(-60.5874 -2.96156 -100)
(-60.6002 -2.95855 100)
(-60.6002 -2.95855 -100)
(-60.6129 -2.95544 100)
(-60.6129 -2.95544 -100)
(-60.6256 -2.95222 100)
(-60.6256 -2.95222 -100)
(-60.6382 -2.94889 100)
(-60.6382 -2.94889 -100)
(-60.6509 -2.94545 100)
(-60.6509 -2.94545 -100)
(-60.6635 -2.94189 100)
(-60.6635 -2.94189 -100)
(-60.676 -2.93823 100)
(-60.676 -2.93823 -100)
(-60.6886 -2.93446 100)
(-60.6886 -2.93446 -100)
(-60.7011 -2.93058 100)
(-60.7011 -2.93058 -100)
(-60.7135 -2.92658 100)
(-60.7135 -2.92658 -100)
(-60.726 -2.92249 100)
(-60.726 -2.92249 -100)
(-60.7383 -2.91828 100)
(-60.7383 -2.91828 -100)
(-60.7507 -2.91396 100)
(-60.7507 -2.91396 -100)
(-60.763 -2.90954 100)
(-60.763 -2.90954 -100)
(-60.7753 -2.90501 100)
(-60.7753 -2.90501 -100)
(-60.7876 -2.90037 100)
(-60.7876 -2.90037 -100)
(-60.7998 -2.89563 100)
(-60.7998 -2.89563 -100)
(-60.8119 -2.89078 100)
(-60.8119 -2.89078 -100)
(-60.824 -2.88582 100)
(-60.824 -2.88582 -100)
(-60.8361 -2.88076 100)
(-60.8361 -2.88076 -100)
(-60.8481 -2.87559 100)
(-60.8481 -2.87559 -100)
(-60.8601 -2.87032 100)
(-60.8601 -2.87032 -100)
(-60.872 -2.86494 100)
(-60.872 -2.86494 -100)
(-60.8839 -2.85946 100)
(-60.8839 -2.85946 -100)
(-60.8958 -2.85388 100)
(-60.8958 -2.85388 -100)
(-60.9076 -2.84819 100)
(-60.9076 -2.84819 -100)
(-60.9193 -2.8424 100)
(-60.9193 -2.8424 -100)
(-60.931 -2.83651 100)
(-60.931 -2.83651 -100)
(-60.9426 -2.83052 100)
(-60.9426 -2.83052 -100)
(-60.9542 -2.82442 100)
(-60.9542 -2.82442 -100)
(-60.9657 -2.81823 100)
(-60.9657 -2.81823 -100)
(-60.9772 -2.81193 100)
(-60.9772 -2.81193 -100)
(-60.9886 -2.80553 100)
(-60.9886 -2.80553 -100)
(-61 -2.79904 100)
(-61 -2.79904 -100)
(-61.0113 -2.79244 100)
(-61.0113 -2.79244 -100)
(-61.0226 -2.78575 100)
(-61.0226 -2.78575 -100)
(-61.0337 -2.77896 100)
(-61.0337 -2.77896 -100)
(-61.0449 -2.77207 100)
(-61.0449 -2.77207 -100)
(-61.056 -2.76509 100)
(-61.056 -2.76509 -100)
(-61.067 -2.75801 100)
(-61.067 -2.75801 -100)
(-61.0779 -2.75083 100)
(-61.0779 -2.75083 -100)
(-61.0888 -2.74356 100)
(-61.0888 -2.74356 -100)
(-61.0996 -2.73619 100)
(-61.0996 -2.73619 -100)
(-61.1104 -2.72873 100)
(-61.1104 -2.72873 -100)
(-61.1211 -2.72117 100)
(-61.1211 -2.72117 -100)
(-61.1317 -2.71353 100)
(-61.1317 -2.71353 -100)
(-61.1422 -2.70579 100)
(-61.1422 -2.70579 -100)
(-61.1527 -2.69795 100)
(-61.1527 -2.69795 -100)
(-61.1631 -2.69003 100)
(-61.1631 -2.69003 -100)
(-61.1735 -2.68202 100)
(-61.1735 -2.68202 -100)
(-61.1838 -2.67391 100)
(-61.1838 -2.67391 -100)
(-61.194 -2.66572 100)
(-61.194 -2.66572 -100)
(-61.2041 -2.65744 100)
(-61.2041 -2.65744 -100)
(-61.2142 -2.64907 100)
(-61.2142 -2.64907 -100)
(-61.2242 -2.64061 100)
(-61.2242 -2.64061 -100)
(-61.2341 -2.63206 100)
(-61.2341 -2.63206 -100)
(-61.2439 -2.62343 100)
(-61.2439 -2.62343 -100)
(-61.2537 -2.61472 100)
(-61.2537 -2.61472 -100)
(-61.2634 -2.60592 100)
(-61.2634 -2.60592 -100)
(-61.273 -2.59703 100)
(-61.273 -2.59703 -100)
(-61.2825 -2.58806 100)
(-61.2825 -2.58806 -100)
(-61.292 -2.57901 100)
(-61.292 -2.57901 -100)
(-61.3014 -2.56988 100)
(-61.3014 -2.56988 -100)
(-61.3107 -2.56066 100)
(-61.3107 -2.56066 -100)
(-61.3199 -2.55136 100)
(-61.3199 -2.55136 -100)
(-61.329 -2.54199 100)
(-61.329 -2.54199 -100)
(-61.3381 -2.53253 100)
(-61.3381 -2.53253 -100)
(-61.347 -2.523 100)
(-61.347 -2.523 -100)
(-61.3559 -2.51339 100)
(-61.3559 -2.51339 -100)
(-61.3647 -2.5037 100)
(-61.3647 -2.5037 -100)
(-61.3734 -2.49393 100)
(-61.3734 -2.49393 -100)
(-61.3821 -2.48409 100)
(-61.3821 -2.48409 -100)
(-61.3906 -2.47417 100)
(-61.3906 -2.47417 -100)
(-61.3991 -2.46418 100)
(-61.3991 -2.46418 -100)
(-61.4074 -2.45412 100)
(-61.4074 -2.45412 -100)
(-61.4157 -2.44398 100)
(-61.4157 -2.44398 -100)
(-61.4239 -2.43377 100)
(-61.4239 -2.43377 -100)
(-61.432 -2.42349 100)
(-61.432 -2.42349 -100)
(-61.44 -2.41314 100)
(-61.44 -2.41314 -100)
(-61.4479 -2.40272 100)
(-61.4479 -2.40272 -100)
(-61.4558 -2.39223 100)
(-61.4558 -2.39223 -100)
(-61.4635 -2.38168 100)
(-61.4635 -2.38168 -100)
(-61.4712 -2.37105 100)
(-61.4712 -2.37105 -100)
(-61.4787 -2.36036 100)
(-61.4787 -2.36036 -100)
(-61.4862 -2.34961 100)
(-61.4862 -2.34961 -100)
(-61.4936 -2.33879 100)
(-61.4936 -2.33879 -100)
(-61.5008 -2.3279 100)
(-61.5008 -2.3279 -100)
(-61.508 -2.31696 100)
(-61.508 -2.31696 -100)
(-61.5151 -2.30595 100)
(-61.5151 -2.30595 -100)
(-61.5221 -2.29488 100)
(-61.5221 -2.29488 -100)
(-61.529 -2.28375 100)
(-61.529 -2.28375 -100)
(-61.5358 -2.27256 100)
(-61.5358 -2.27256 -100)
(-61.5424 -2.26131 100)
(-61.5424 -2.26131 -100)
(-61.549 -2.25 100)
(-61.549 -2.25 -100)
(-61.5555 -2.23864 100)
(-61.5555 -2.23864 -100)
(-61.5619 -2.22721 100)
(-61.5619 -2.22721 -100)
(-61.5682 -2.21574 100)
(-61.5682 -2.21574 -100)
(-61.5744 -2.20421 100)
(-61.5744 -2.20421 -100)
(-61.5805 -2.19262 100)
(-61.5805 -2.19262 -100)
(-61.5865 -2.18099 100)
(-61.5865 -2.18099 -100)
(-61.5924 -2.1693 100)
(-61.5924 -2.1693 -100)
(-61.5982 -2.15756 100)
(-61.75 1.5 100)
(-61.75 1.5 -100)
(-61.7499 1.51309 100)
(-60.9076 2.84819 -100)
(-60.8958 2.85388 100)
(-60.8958 2.85388 -100)
(-60.8839 2.85946 100)
(-60.8839 2.85946 -100)
(-60.872 2.86494 100)
(-60.872 2.86494 -100)
(-60.8601 2.87032 100)
(-60.8601 2.87032 -100)
(-60.8481 2.87559 100)
(-60.8481 2.87559 -100)
(-60.8361 2.88076 100)
(-60.8361 2.88076 -100)
(-60.824 2.88582 100)
(-60.824 2.88582 -100)
(-60.8119 2.89078 100)
(-60.8119 2.89078 -100)
(-60.7998 2.89563 100)
(-60.7998 2.89563 -100)
(-60.7876 2.90037 100)
(-60.7876 2.90037 -100)
(-60.7753 2.90501 100)
(-60.7753 2.90501 -100)
(-60.763 2.90954 100)
(-60.763 2.90954 -100)
(-60.7507 2.91396 100)
(-60.7507 2.91396 -100)
(-60.7383 2.91828 100)
(-60.7383 2.91828 -100)
(-60.726 2.92249 100)
(-60.726 2.92249 -100)
(-60.7135 2.92658 100)
(-60.7135 2.92658 -100)
(-60.7011 2.93058 100)
(-60.7011 2.93058 -100)
(-60.6886 2.93446 100)
(-60.6886 2.93446 -100)
(-60.676 2.93823 100)
(-60.676 2.93823 -100)
(-60.6635 2.94189 100)
(-60.6635 2.94189 -100)
(-60.6509 2.94545 100)
(-60.6509 2.94545 -100)
(-60.6382 2.94889 100)
(-60.6382 2.94889 -100)
(-60.6256 2.95222 100)
(-60.6256 2.95222 -100)
(-60.6129 2.95544 100)
(-60.6129 2.95544 -100)
(-60.6002 2.95855 100)
(-60.6002 2.95855 -100)
(-60.5874 2.96156 100)
(-60.5874 2.96156 -100)
(-60.5747 2.96444 100)
(-60.5747 2.96444 -100)
(-60.5619 2.96722 100)
(-60.5619 2.96722 -100)
(-60.549 2.96989 100)
(-60.549 2.96989 -100)
(-60.5362 2.97244 100)
(-60.5362 2.97244 -100)
(-60.5233 2.97488 100)
(-60.5233 2.97488 -100)
(-60.5105 2.97721 100)
(-60.5105 2.97721 -100)
(-60.4976 2.97943 100)
(-60.4976 2.97943 -100)
(-60.4846 2.98153 100)
(-60.4846 2.98153 -100)
(-60.4717 2.98352 100)
(-60.4717 2.98352 -100)
(-60.4588 2.9854 100)
(-60.4588 2.9854 -100)
(-60.4458 2.98717 100)
(-60.4458 2.98717 -100)
(-60.4328 2.98882 100)
(-60.4328 2.98882 -100)
(-60.4198 2.99036 100)
(-60.4198 2.99036 -100)
(-60.4068 2.99178 100)
(-60.4068 2.99178 -100)
(-60.3938 2.99309 100)
(-60.3938 2.99309 -100)
(-60.3807 2.99429 100)
(-60.3807 2.99429 -100)
(-60.3677 2.99538 100)
(-60.3677 2.99538 -100)
(-60.3546 2.99635 100)
(-60.3546 2.99635 -100)
(-60.3416 2.9972 100)
(-60.3416 2.9972 -100)
(-60.3285 2.99794 100)
(-60.3285 2.99794 -100)
(-60.3154 2.99857 100)
(-60.3154 2.99857 -100)
(-60.3023 2.99909 100)
(-60.3023 2.99909 -100)
(-60.2893 2.99949 100)
(-60.2893 2.99949 -100)
(-60.2762 2.99977 100)
(-60.2762 2.99977 -100)
(-60.2631 2.99994 100)
(-60.2631 2.99994 -100)
(-60.25 3 100)
(-60.25 3 -100)
(-61.7499 1.51309 -100)
(-61.7498 1.52618 100)
(-61.7498 1.52618 -100)
(-61.7495 1.53927 100)
(-61.7495 1.53927 -100)
(-61.7491 1.55235 100)
(-61.7491 1.55235 -100)
(-61.7486 1.56543 100)
(-61.7486 1.56543 -100)
(-61.748 1.5785 100)
(-61.748 1.5785 -100)
(-61.7472 1.59157 100)
(-61.7472 1.59157 -100)
(-61.7463 1.60464 100)
(-61.7463 1.60464 -100)
(-61.7454 1.61769 100)
(-61.7454 1.61769 -100)
(-61.7443 1.63073 100)
(-61.7443 1.63073 -100)
(-61.7431 1.64377 100)
(-61.7431 1.64377 -100)
(-61.7418 1.65679 100)
(-61.7418 1.65679 -100)
(-61.7404 1.66981 100)
(-61.7404 1.66981 -100)
(-61.7388 1.6828 100)
(-61.7388 1.6828 -100)
(-61.7372 1.69579 100)
(-61.7372 1.69579 -100)
(-61.7354 1.70876 100)
(-61.7354 1.70876 -100)
(-61.7335 1.72171 100)
(-61.7335 1.72171 -100)
(-61.7315 1.73465 100)
(-61.7315 1.73465 -100)
(-61.7294 1.74757 100)
(-61.7294 1.74757 -100)
(-61.7272 1.76047 100)
(-61.7272 1.76047 -100)
(-61.7249 1.77335 100)
(-61.7249 1.77335 -100)
(-61.7224 1.78621 100)
(-61.7224 1.78621 -100)
(-61.7199 1.79905 100)
(-61.7199 1.79905 -100)
(-61.7172 1.81187 100)
(-61.7172 1.81187 -100)
(-61.7144 1.82466 100)
(-61.7144 1.82466 -100)
(-61.7116 1.83743 100)
(-61.7116 1.83743 -100)
(-61.7085 1.85017 100)